<?xml version="1.0" encoding="UTF-8"?>
<!-- generated on 2019-03-07 14:59:31.624652 by $Id$
  options: newTrips.trips.xml
-->
<routes xmlns:xsi="http://www.w3.org/2001/XMLSchema-instance" xsi:noNamespaceSchemaLocation="http://sumo.dlr.de/xsd/routes_file.xsd">
    <trip id="47073_364_0" depart="21600.00" from="30995236#0" to="4400204" type="pkw"/>
    <trip id="35675_354_0" depart="21601.00" from="34998402#0" to="4146743#1" type="pkw"/>
    <trip id="41869_361_0" depart="21601.00" from="130147382#3" to="4936487#1" type="pkw"/>
    <trip id="44103_362_0" depart="21601.00" from="61751607#0" to="-27488602#3" type="pkw"/>
    <trip id="44258_362_0" depart="21601.00" from="13500779#0" to="5057256#0" type="pkw"/>
    <trip id="46797_364_0" depart="21601.00" from="150031205#0" to="245991947#0" type="pkw"/>
    <trip id="46947_364_0" depart="21602.00" from="4999334" to="150031221#0" type="pkw"/>
    <trip id="47247_364_0" depart="21602.00" from="-27431138#1" to="-350444361#0" type="pkw"/>
    <trip id="49758_367_0" depart="21602.00" from="132951111#0" to="154743411#0" type="pkw"/>
    <trip id="40294_360_0" depart="21603.00" from="155723658#2" to="-186623965#5" type="pkw"/>
    <trip id="40618_360_0" depart="21603.00" from="-41581218#1" to="303244426" type="pkw"/>
    <trip id="45702_363_0" depart="21603.00" from="128524709#7" to="23493807#0" type="pkw"/>
    <trip id="46502_363_0" depart="21603.00" from="23211423#0" to="-145127856#2" type="pkw"/>
    <trip id="35378_354_0" depart="21604.00" from="5367035#0" to="203091859" type="pkw"/>
    <trip id="37522_358_0" depart="21604.00" from="25677756" to="13538161" type="pkw"/>
    <trip id="37628_358_0" depart="21604.00" from="-150031296#0" to="5015536#0" type="pkw"/>
    <trip id="40556_360_0" depart="21604.00" from="20305202" to="32095060" type="pkw"/>
    <trip id="42069_361_0" depart="21604.00" from="-166476873#0" to="-122313834#1" type="pkw"/>
    <trip id="45023_362_0" depart="21604.00" from="24001981#0" to="74889297#1" type="pkw"/>
    <trip id="49892_367_0" depart="21604.00" from="-160153699#4" to="42758994#0" type="pkw"/>
    <trip id="41033_361_0" depart="21605.00" from="22891261#0" to="74889297#2" type="pkw"/>
    <trip id="38198_359_0" depart="21606.00" from="-5062347#5" to="23739623#2" type="pkw"/>
    <trip id="39086_360_0" depart="21606.00" from="343200138#0" to="83703645" type="pkw"/>
    <trip id="40479_360_0" depart="21606.00" from="142505420#0" to="151054054#0" type="pkw"/>
    <trip id="43234_362_0" depart="21606.00" from="23286180" to="129318319#0" type="pkw"/>
    <trip id="45576_363_0" depart="21606.00" from="4146760#1" to="245122333#2" type="pkw"/>
    <trip id="45829_363_0" depart="21606.00" from="-20302220#0" to="4227499#1" type="pkw"/>
    <trip id="46868_364_0" depart="21607.00" from="94587474#7" to="69565657#0" type="pkw"/>
    <trip id="37891_358_0" depart="21608.00" from="156992238#0" to="-154513853#2" type="pkw"/>
    <trip id="48072_365_0" depart="21608.00" from="5062354#0" to="150031202#7" type="pkw"/>
    <trip id="37546_358_0" depart="21609.00" from="94587474#0" to="4866131#4" type="pkw"/>
    <trip id="43590_362_0" depart="21609.00" from="27588688#0" to="53107001" type="pkw"/>
    <trip id="45733_363_0" depart="21609.00" from="4145974#1" to="20187845#0" type="pkw"/>
    <trip id="49707_367_0" depart="21609.00" from="-151069473#1" to="154755117" type="pkw"/>
    <trip id="39634_360_0" depart="21610.00" from="-154755070" to="5015525#1" type="pkw"/>
    <trip id="40474_360_0" depart="21610.00" from="-22917576#0" to="154755117" type="pkw"/>
    <trip id="46885_364_0" depart="21610.00" from="8225102" to="24462430#1" type="pkw"/>
    <trip id="47510_365_0" depart="21610.00" from="4400311#0" to="151057637#2" type="pkw"/>
    <trip id="48376_366_0" depart="21610.00" from="4866456#0" to="-59464079#2" type="pkw"/>
    <trip id="35223_353_0" depart="21611.00" from="28523868#0" to="23739623#2" type="pkw"/>
    <trip id="35782_355_0" depart="21611.00" from="28542897#1" to="206151158#2" type="pkw"/>
    <trip id="37140_357_0" depart="21611.00" from="5216279" to="158372035#0" type="pkw"/>
    <trip id="42123_361_0" depart="21611.00" from="-25445681#3" to="37191915#3" type="pkw"/>
    <trip id="47840_365_0" depart="21611.00" from="297011896#5" to="82804453#0" type="pkw"/>
    <trip id="36473_356_0" depart="21612.00" from="4400193#0" to="37060590" type="pkw"/>
    <trip id="46652_363_0" depart="21612.00" from="4936487#3" to="253093567" type="pkw"/>
    <trip id="47758_365_0" depart="21612.00" from="154513853#1" to="-8225106" type="pkw"/>
    <trip id="49113_367_0" depart="21612.00" from="-67655527" to="4119602#0" type="pkw"/>
    <trip id="35177_353_0" depart="21613.00" from="150031296#1" to="5216289#0" type="pkw"/>
    <trip id="35999_355_0" depart="21613.00" from="24002004#0" to="24001984" type="pkw"/>
    <trip id="46946_364_0" depart="21613.00" from="5367038" to="154743409#0" type="pkw"/>
    <trip id="47664_365_0" depart="21613.00" from="4907744#1" to="25866964#1" type="pkw"/>
    <trip id="46775_363_0" depart="21614.00" from="-25866958#1" to="-31290823#4" type="pkw"/>
    <trip id="47424_364_0" depart="21614.00" from="4145972#1" to="4999332#4" type="pkw"/>
    <trip id="49671_367_0" depart="21614.00" from="-29710485#5" to="154502582" type="pkw"/>
    <trip id="35627_354_0" depart="21615.00" from="-173492586#0" to="4907749" type="pkw"/>
    <trip id="37771_358_0" depart="21615.00" from="4229590" to="-32136295#3" type="pkw"/>
    <trip id="38342_359_0" depart="21615.00" from="21417363#5" to="-186623965#5" type="pkw"/>
    <trip id="45604_363_0" depart="21615.00" from="51827455#3" to="154502582" type="pkw"/>
    <trip id="46190_363_0" depart="21616.00" from="4145957#3" to="52350061#0" type="pkw"/>
    <trip id="47491_364_0" depart="21616.00" from="23656123#1" to="151057637#2" type="pkw"/>
    <trip id="48514_366_0" depart="21616.00" from="155798953#4" to="23015529#0" type="pkw"/>
    <trip id="38247_359_0" depart="21617.00" from="8225132" to="155600123#0" type="pkw"/>
    <trip id="40738_360_0" depart="21617.00" from="32021843#0" to="32390176#3" type="pkw"/>
    <trip id="44406_362_0" depart="21617.00" from="155723705#0" to="-186623965#5" type="pkw"/>
    <trip id="44825_362_0" depart="21617.00" from="4071776#0" to="-150031223" type="pkw"/>
    <trip id="45107_362_0" depart="21618.00" from="241660955#6" to="-23795218#3" type="pkw"/>
    <trip id="36148_355_0" depart="21619.00" from="29097289#0" to="157140427" type="pkw"/>
    <trip id="37996_358_0" depart="21619.00" from="130160206#1" to="-32136295#3" type="pkw"/>
    <trip id="38809_359_0" depart="21619.00" from="166604273#0" to="23800664" type="pkw"/>
    <trip id="41030_361_0" depart="21619.00" from="40060751#0" to="144930996#6" type="pkw"/>
    <trip id="45708_363_0" depart="21619.00" from="22887906#4" to="-51239804#5" type="pkw"/>
    <trip id="46357_363_0" depart="21619.00" from="28930172#5" to="151057652#2" type="pkw"/>
    <trip id="39665_360_0" depart="21620.00" from="23705824" to="27404839#1" type="pkw"/>
    <trip id="39806_360_0" depart="21620.00" from="24466280#18" to="74889297#1" type="pkw"/>
    <trip id="45438_362_0" depart="21620.00" from="4999337#0" to="35094937#4" type="pkw"/>
    <trip id="47969_365_0" depart="21620.00" from="226371402#5" to="-206146753#0" type="pkw"/>
    <trip id="34983_353_0" depart="21621.00" from="-23283579#1" to="5057256#0" type="pkw"/>
    <trip id="35566_354_0" depart="21621.00" from="50629722" to="34999321#0" type="pkw"/>
    <trip id="35705_354_0" depart="21621.00" from="37191915#0" to="5216289#0" type="pkw"/>
    <trip id="37921_358_0" depart="21621.00" from="-22891241#0" to="23013699#3" type="pkw"/>
    <trip id="38125_359_0" depart="21621.00" from="25326177" to="85586808#0" type="pkw"/>
    <trip id="40554_360_0" depart="21621.00" from="313598780#0" to="-8716807#5" type="pkw"/>
    <trip id="42009_361_0" depart="21621.00" from="155723645#0" to="5062367#0" type="pkw"/>
    <trip id="42035_361_0" depart="21621.00" from="218895701#0" to="245991947#0" type="pkw"/>
    <trip id="40756_360_0" depart="21622.00" from="151069476#0" to="5216273#0" type="pkw"/>
    <trip id="43908_362_0" depart="21622.00" from="25997632" to="58253932#0" type="pkw"/>
    <trip id="46300_363_0" depart="21622.00" from="-151069473#1" to="154507079#2" type="pkw"/>
    <trip id="42310_361_0" depart="21623.00" from="51167916#1" to="-31864804" type="pkw"/>
    <trip id="43534_362_0" depart="21623.00" from="4999332#2" to="-145127856#2" type="pkw"/>
    <trip id="45132_362_0" depart="21623.00" from="23647463" to="157140427" type="pkw"/>
    <trip id="49832_367_0" depart="21623.00" from="49612855#0" to="23655545" type="pkw"/>
    <trip id="35531_354_0" depart="21624.00" from="-25661944#1" to="24449414" type="pkw"/>
    <trip id="38494_359_0" depart="21624.00" from="144886434#2" to="206151158#2" type="pkw"/>
    <trip id="38672_359_0" depart="21624.00" from="28930172#5" to="6186581#1" type="pkw"/>
    <trip id="42407_361_0" depart="21624.00" from="155723705#1" to="69565657#0" type="pkw"/>
    <trip id="46666_363_0" depart="21624.00" from="5015525#1" to="-5057252#5" type="pkw"/>
    <trip id="48298_365_0" depart="21624.00" from="141206217" to="25661569#1" type="pkw"/>
    <trip id="35145_353_0" depart="21625.00" from="-25445681#3" to="37874787#0" type="pkw"/>
    <trip id="39222_360_0" depart="21625.00" from="23686119#0" to="37191915#0" type="pkw"/>
    <trip id="40864_360_0" depart="21625.00" from="23283470#0" to="28930544#1" type="pkw"/>
    <trip id="49274_367_0" depart="21625.00" from="37873571#0" to="253093567" type="pkw"/>
    <trip id="35878_355_0" depart="21626.00" from="4907744#1" to="260714008#0" type="pkw"/>
    <trip id="42572_361_0" depart="21626.00" from="-31113883#1" to="-145127856#2" type="pkw"/>
    <trip id="45958_363_0" depart="21626.00" from="-27462538#0" to="32390176#3" type="pkw"/>
    <trip id="48965_366_0" depart="21626.00" from="349767055#5" to="23647078#0" type="pkw"/>
    <trip id="37221_357_0" depart="21627.00" from="4401673#6" to="23686464#0" type="pkw"/>
    <trip id="45969_363_0" depart="21627.00" from="186646384#0" to="-23572047#1" type="pkw"/>
    <trip id="36216_356_0" depart="21628.00" from="63589540" to="253093567" type="pkw"/>
    <trip id="39911_360_0" depart="21628.00" from="27404213#0" to="25445682#0" type="pkw"/>
    <trip id="40334_360_0" depart="21628.00" from="8716827#3" to="38028022" type="pkw"/>
    <trip id="44137_362_0" depart="21628.00" from="6240642#0" to="-33971536" type="pkw"/>
    <trip id="45034_362_0" depart="21628.00" from="52350061#0" to="29206900" type="pkw"/>
    <trip id="45903_363_0" depart="21628.00" from="27659702#2" to="27018103" type="pkw"/>
    <trip id="47853_365_0" depart="21628.00" from="-225373489#0" to="51081171#5" type="pkw"/>
    <trip id="48696_366_0" depart="21628.00" from="5015525#0" to="4920007#0" type="pkw"/>
    <trip id="37841_358_0" depart="21630.00" from="-37191914#0" to="4400306#0" type="pkw"/>
    <trip id="43893_362_0" depart="21630.00" from="22891631#5" to="26423857#0" type="pkw"/>
    <trip id="46421_363_0" depart="21630.00" from="-145127856#4" to="22598773" type="pkw"/>
    <trip id="47443_364_0" depart="21630.00" from="5004993#0" to="74889297#2" type="pkw"/>
    <trip id="50126_368_0" depart="21630.00" from="-160153693#3" to="349603487" type="pkw"/>
    <trip id="38933_359_0" depart="21631.00" from="321899441#0" to="155592973#6" type="pkw"/>
    <trip id="47218_364_0" depart="21631.00" from="8196629#0" to="4045164#0" type="pkw"/>
    <trip id="47668_365_0" depart="21631.00" from="120745835#0" to="209578092" type="pkw"/>
    <trip id="47903_365_0" depart="21631.00" from="4121462" to="37746015#0" type="pkw"/>
    <trip id="44141_362_0" depart="21632.00" from="27467970#0" to="-325447372#7" type="pkw"/>
    <trip id="48499_366_0" depart="21632.00" from="49369566#0" to="150031202#9" type="pkw"/>
    <trip id="40158_360_0" depart="21633.00" from="-160153688#6" to="135788128#1" type="pkw"/>
    <trip id="44647_362_0" depart="21633.00" from="151060324#0" to="150222600#4" type="pkw"/>
    <trip id="45143_362_0" depart="21633.00" from="4236887" to="24900359#0" type="pkw"/>
    <trip id="47569_365_0" depart="21633.00" from="8717077#1" to="241660955#4" type="pkw"/>
    <trip id="48822_366_0" depart="21633.00" from="-20429294#0" to="69565657#0" type="pkw"/>
    <trip id="50650_368_0" depart="21633.00" from="-27682575#2" to="5015523#0" type="pkw"/>
    <trip id="40883_360_0" depart="21634.00" from="150031205#0" to="23694989" type="pkw"/>
    <trip id="44246_362_0" depart="21634.00" from="-67655527" to="69565657#0" type="pkw"/>
    <trip id="44654_362_0" depart="21634.00" from="160153705#0" to="-32136295#3" type="pkw"/>
    <trip id="46236_363_0" depart="21634.00" from="4672003#1" to="-20151922#1" type="pkw"/>
    <trip id="35982_355_0" depart="21635.00" from="37110197#0" to="150222600#4" type="pkw"/>
    <trip id="48353_365_0" depart="21635.00" from="23655596" to="220110964#0" type="pkw"/>
    <trip id="50325_368_0" depart="21635.00" from="23211423#0" to="203322740#0" type="pkw"/>
    <trip id="36874_357_0" depart="21636.00" from="-130147382#4" to="32390176#3" type="pkw"/>
    <trip id="39403_360_0" depart="21637.00" from="353073074#0" to="253093567" type="pkw"/>
    <trip id="39789_360_0" depart="21637.00" from="24592789#0" to="133081509#0" type="pkw"/>
    <trip id="41194_361_0" depart="21637.00" from="5057241#0" to="11624079#0" type="pkw"/>
    <trip id="47709_365_0" depart="21637.00" from="-41581218#1" to="213185325#0" type="pkw"/>
    <trip id="49911_367_0" depart="21637.00" from="154502589#1" to="4400211#0" type="pkw"/>
    <trip id="50010_368_0" depart="21637.00" from="60909001" to="194017408#0" type="pkw"/>
    <trip id="37935_358_0" depart="21638.00" from="155798978#2" to="154755082#0" type="pkw"/>
    <trip id="43973_362_0" depart="21638.00" from="2956491#0" to="154502582" type="pkw"/>
    <trip id="46616_363_0" depart="21638.00" from="-13237126#1" to="154755122#0" type="pkw"/>
    <trip id="36503_356_0" depart="21639.00" from="24499261#0" to="48405468#0" type="pkw"/>
    <trip id="37304_357_0" depart="21639.00" from="36940235#0" to="23016541#0" type="pkw"/>
    <trip id="38665_359_0" depart="21639.00" from="4145957#1" to="22822132#0" type="pkw"/>
    <trip id="39384_360_0" depart="21639.00" from="23283470#0" to="27463238#0" type="pkw"/>
    <trip id="43670_362_0" depart="21639.00" from="155424468#3" to="-5057258#2" type="pkw"/>
    <trip id="47156_364_0" depart="21639.00" from="28700286" to="69565657#0" type="pkw"/>
    <trip id="47327_364_0" depart="21639.00" from="4366296#1" to="-28675493" type="pkw"/>
    <trip id="49734_367_0" depart="21639.00" from="241680751" to="4973067#0" type="pkw"/>
    <trip id="50076_368_0" depart="21639.00" from="225285618#1" to="-4532200#2" type="pkw"/>
    <trip id="40152_360_0" depart="21640.00" from="260965267#1" to="157393119#3" type="pkw"/>
    <trip id="44950_362_0" depart="21640.00" from="241680751" to="5216289#0" type="pkw"/>
    <trip id="48106_365_0" depart="21640.00" from="32856811#2" to="206151158#2" type="pkw"/>
    <trip id="50066_368_0" depart="21640.00" from="353073074#5" to="117679358#1" type="pkw"/>
    <trip id="50353_368_0" depart="21640.00" from="22959912#0" to="241680537#0" type="pkw"/>
    <trip id="48549_366_0" depart="21640.62" from="-155603709#0" to="27588705#1" type="pkw"/>
    <trip id="38896_359_0" depart="21641.00" from="-4920027#1" to="26423857#1" type="pkw"/>
    <trip id="40475_360_0" depart="21641.00" from="28700286" to="-52458131#1" type="pkw"/>
    <trip id="42007_361_0" depart="21641.00" from="26704854#2" to="37746015#0" type="pkw"/>
    <trip id="43158_362_0" depart="21641.00" from="154755073#3" to="8716807#1" type="pkw"/>
    <trip id="44602_362_0" depart="21641.00" from="24493738#1" to="-22873505#1" type="pkw"/>
    <trip id="44859_362_0" depart="21641.00" from="-151069473#1" to="206151158#2" type="pkw"/>
    <trip id="45292_362_0" depart="21641.00" from="-173492586#0" to="-27290012#2" type="pkw"/>
    <trip id="45361_362_0" depart="21641.00" from="23037080#0" to="8076095" type="pkw"/>
    <trip id="35887_355_0" depart="21642.00" from="23739616#0" to="83703645" type="pkw"/>
    <trip id="37203_357_0" depart="21642.00" from="23543143" to="-24002026#5" type="pkw"/>
    <trip id="48184_365_0" depart="21642.00" from="-25661944#1" to="8203277#0" type="pkw"/>
    <trip id="48194_365_0" depart="21642.00" from="-4882042#0" to="32021863#0" type="pkw"/>
    <trip id="39787_360_0" depart="21643.00" from="8133897#2" to="295516792" type="pkw"/>
    <trip id="40189_360_0" depart="21643.00" from="-201427622" to="-325447372#7" type="pkw"/>
    <trip id="41438_361_0" depart="21643.00" from="24499588#0" to="-186623965#5" type="pkw"/>
    <trip id="42020_361_0" depart="21643.00" from="8213009#4" to="206151158#2" type="pkw"/>
    <trip id="43975_362_0" depart="21643.00" from="22917424#0" to="74889297#2" type="pkw"/>
    <trip id="47777_365_0" depart="21643.00" from="198147973#0" to="51857078#2" type="pkw"/>
    <trip id="48407_366_0" depart="21643.00" from="20792880#0" to="-32136295#3" type="pkw"/>
    <trip id="41254_361_0" depart="21644.00" from="-123082662#1" to="219098055#0" type="pkw"/>
    <trip id="42263_361_0" depart="21644.00" from="188676296#3" to="74889297#1" type="pkw"/>
    <trip id="43333_362_0" depart="21644.00" from="22598769#6" to="23739623#2" type="pkw"/>
    <trip id="45008_362_0" depart="21644.00" from="24232748" to="28930544#1" type="pkw"/>
    <trip id="37787_358_0" depart="21645.00" from="4920012#0" to="157140427" type="pkw"/>
    <trip id="40487_360_0" depart="21645.00" from="27462372#2" to="74889297#1" type="pkw"/>
    <trip id="42022_361_0" depart="21645.00" from="57107410#3" to="186463490#1" type="pkw"/>
    <trip id="46610_363_0" depart="21645.00" from="23647035#0" to="-5021132#1" type="pkw"/>
    <trip id="48158_365_0" depart="21645.00" from="24449300" to="74889297#1" type="pkw"/>
    <trip id="50598_368_0" depart="21645.00" from="326986553" to="150222600#4" type="pkw"/>
    <trip id="50633_368_0" depart="21645.00" from="4020389#2" to="-186623965#5" type="pkw"/>
    <trip id="43465_362_0" depart="21645.74" from="20151922#1" to="253093567" type="pkw"/>
    <trip id="38606_359_0" depart="21646.00" from="-225285608#1" to="26783988" type="pkw"/>
    <trip id="42954_361_0" depart="21646.00" from="241660955#6" to="218930183#0" type="pkw"/>
    <trip id="44159_362_0" depart="21646.00" from="22644237#0" to="69565657#0" type="pkw"/>
    <trip id="47844_365_0" depart="21646.00" from="155798953#5" to="154755100#0" type="pkw"/>
    <trip id="38205_359_0" depart="21647.00" from="160153673" to="-361067554" type="pkw"/>
    <trip id="41270_361_0" depart="21647.00" from="25048209" to="245991947#0" type="pkw"/>
    <trip id="46804_364_0" depart="21647.00" from="-24464015#5" to="23949773#1" type="pkw"/>
    <trip id="36104_355_0" depart="21648.00" from="-33971536" to="128524710" type="pkw"/>
    <trip id="38598_359_0" depart="21648.00" from="179415329" to="245991947#0" type="pkw"/>
    <trip id="42303_361_0" depart="21648.00" from="52349955" to="4907748" type="pkw"/>
    <trip id="49955_367_0" depart="21648.00" from="25866964#0" to="25676949#1" type="pkw"/>
    <trip id="39056_360_0" depart="21649.00" from="23649969#4" to="28930544#1" type="pkw"/>
    <trip id="42156_361_0" depart="21649.00" from="5015525#1" to="31722677#4" type="pkw"/>
    <trip id="43858_362_0" depart="21649.00" from="-28639672#1" to="-150031186" type="pkw"/>
    <trip id="45846_363_0" depart="21649.00" from="155723705#0" to="194017408#0" type="pkw"/>
    <trip id="49149_367_0" depart="21649.00" from="4145957#3" to="24693845#0" type="pkw"/>
    <trip id="43536_362_0" depart="21650.00" from="-28675510#0" to="28930544#1" type="pkw"/>
    <trip id="46058_363_0" depart="21650.00" from="23654714#4" to="187965761#2" type="pkw"/>
    <trip id="47262_364_0" depart="21650.00" from="-4866456#0" to="145575263#0" type="pkw"/>
    <trip id="48065_365_0" depart="21650.00" from="-25866964#2" to="23543117#0" type="pkw"/>
    <trip id="41004_361_0" depart="21651.00" from="22887905#3" to="253093567" type="pkw"/>
    <trip id="41626_361_0" depart="21651.00" from="4119605#2" to="319929496" type="pkw"/>
    <trip id="44719_362_0" depart="21651.00" from="13539117" to="154502580#1" type="pkw"/>
    <trip id="50343_368_0" depart="21651.00" from="156992243#0" to="48654842" type="pkw"/>
    <trip id="41178_361_0" depart="21651.68" from="53048587#0" to="151057637#1" type="pkw"/>
    <trip id="46726_363_0" depart="21651.74" from="20151922#1" to="-4936454" type="pkw"/>
    <trip id="37783_358_0" depart="21652.00" from="298367344" to="150031202#7" type="pkw"/>
    <trip id="40530_360_0" depart="21652.00" from="154502572#0" to="32887120" type="pkw"/>
    <trip id="41436_361_0" depart="21652.00" from="-20791992#1" to="154755090#1" type="pkw"/>
    <trip id="37182_357_0" depart="21653.00" from="160153675#1" to="51730932#2" type="pkw"/>
    <trip id="38865_359_0" depart="21653.00" from="23686852#0" to="-24456691#0" type="pkw"/>
    <trip id="41488_361_0" depart="21653.00" from="141206202" to="206151158#2" type="pkw"/>
    <trip id="39004_359_0" depart="21654.00" from="8225124#0" to="51730932#2" type="pkw"/>
    <trip id="43382_362_0" depart="21654.00" from="27618703#0" to="23015529#0" type="pkw"/>
    <trip id="43595_362_0" depart="21654.00" from="32390175#2" to="303244432#0" type="pkw"/>
    <trip id="46157_363_0" depart="21654.00" from="23562785" to="194017219" type="pkw"/>
    <trip id="49854_367_0" depart="21654.00" from="-319929495#1" to="5015522#0" type="pkw"/>
    <trip id="38382_359_0" depart="21655.00" from="29097289#0" to="206151158#2" type="pkw"/>
    <trip id="40726_360_0" depart="21655.00" from="8196681#0" to="8196655#4" type="pkw"/>
    <trip id="42959_361_0" depart="21655.00" from="-94587474#7" to="318067901#0" type="pkw"/>
    <trip id="45322_362_0" depart="21655.00" from="23798319#4" to="-5229966#4" type="pkw"/>
    <trip id="43358_362_0" depart="21655.24" from="27461487#11" to="43653947#1" type="pkw"/>
    <trip id="35667_354_0" depart="21655.70" from="47313732#5" to="-218408988" type="pkw"/>
    <trip id="35612_354_0" depart="21656.00" from="5216279" to="5216289#0" type="pkw"/>
    <trip id="35759_355_0" depart="21656.00" from="173282738#0" to="154502582" type="pkw"/>
    <trip id="40826_360_0" depart="21656.00" from="-32041420#6" to="4882046#0" type="pkw"/>
    <trip id="44761_362_0" depart="21656.00" from="5062367#0" to="5057256#0" type="pkw"/>
    <trip id="46665_363_0" depart="21656.00" from="-22891669" to="5015524" type="pkw"/>
    <trip id="47249_364_0" depart="21656.00" from="150031230#3" to="32390176#3" type="pkw"/>
    <trip id="45821_363_0" depart="21656.61" from="69565654#4" to="157140427" type="pkw"/>
    <trip id="40788_360_0" depart="21657.00" from="23283579#1" to="194017408#0" type="pkw"/>
    <trip id="44007_362_0" depart="21657.00" from="23705836" to="352051174#1" type="pkw"/>
    <trip id="47716_365_0" depart="21657.00" from="-22891259" to="-5057243#9" type="pkw"/>
    <trip id="50383_368_0" depart="21657.00" from="7996806" to="-110518778#0" type="pkw"/>
    <trip id="41039_361_0" depart="21657.47" from="-150222604#3" to="8225106" type="pkw"/>
    <trip id="49270_367_0" depart="21657.84" from="205994022#0" to="23013042#2" type="pkw"/>
    <trip id="40018_360_0" depart="21658.00" from="22598787#1" to="-107709263" type="pkw"/>
    <trip id="41340_361_0" depart="21658.00" from="-13237126#1" to="253093567" type="pkw"/>
    <trip id="45591_363_0" depart="21658.00" from="150222607#0" to="154874107" type="pkw"/>
    <trip id="46102_363_0" depart="21658.00" from="4071776#0" to="157393119#3" type="pkw"/>
    <trip id="49445_367_0" depart="21658.00" from="37331980#0" to="253093567" type="pkw"/>
    <trip id="45938_363_0" depart="21659.00" from="29097289#0" to="-325447372#7" type="pkw"/>
    <trip id="39825_360_0" depart="21660.00" from="9207808" to="160153675#1" type="pkw"/>
    <trip id="40296_360_0" depart="21660.00" from="27462497#0" to="157393119#3" type="pkw"/>
    <trip id="43666_362_0" depart="21660.00" from="40060751#1" to="69565657#0" type="pkw"/>
    <trip id="44668_362_0" depart="21660.00" from="28947227#1" to="20302220#0" type="pkw"/>
    <trip id="44778_362_0" depart="21660.00" from="9615512#1" to="191429449#1" type="pkw"/>
    <trip id="45378_362_0" depart="21660.00" from="23705824" to="23799819#0" type="pkw"/>
    <trip id="46550_363_0" depart="21660.00" from="-150031199" to="186463490#1" type="pkw"/>
    <trip id="47531_365_0" depart="21660.00" from="82878588#1" to="-30767194#2" type="pkw"/>
    <trip id="49986_367_0" depart="21660.00" from="-24686876#0" to="154502563" type="pkw"/>
    <trip id="39098_360_0" depart="21660.23" from="-155603709#0" to="-155603709#0" type="pkw"/>
    <trip id="37703_358_0" depart="21661.00" from="23211425#1" to="-145127856#2" type="pkw"/>
    <trip id="45013_362_0" depart="21661.00" from="24456690#0" to="-217129665#1" type="pkw"/>
    <trip id="46057_363_0" depart="21661.00" from="27588741#6" to="4400448" type="pkw"/>
    <trip id="40381_360_0" depart="21662.00" from="4145974#1" to="27404213#0" type="pkw"/>
    <trip id="43217_362_0" depart="21662.00" from="155723627#0" to="-186623965#5" type="pkw"/>
    <trip id="44285_362_0" depart="21662.00" from="5004994#2" to="32390176#3" type="pkw"/>
    <trip id="46536_363_0" depart="21662.00" from="-150031296#0" to="253093567" type="pkw"/>
    <trip id="50550_368_0" depart="21662.00" from="-37191914#0" to="51844824#0" type="pkw"/>
    <trip id="36604_356_0" depart="21663.00" from="5057245#0" to="5015525#1" type="pkw"/>
    <trip id="40878_360_0" depart="21663.00" from="-27682581" to="4400311#0" type="pkw"/>
    <trip id="41397_361_0" depart="21663.00" from="23285888#0" to="24564047" type="pkw"/>
    <trip id="42113_361_0" depart="21663.00" from="253093566" to="82804452" type="pkw"/>
    <trip id="37108_357_0" depart="21664.00" from="24002004#0" to="34998404#2" type="pkw"/>
    <trip id="37451_357_0" depart="21664.00" from="-145127856#3" to="151057631#0" type="pkw"/>
    <trip id="37558_358_0" depart="21664.00" from="5004994#2" to="154513849#0" type="pkw"/>
    <trip id="38228_359_0" depart="21664.00" from="52282311#0" to="51037479#3" type="pkw"/>
    <trip id="39149_360_0" depart="21664.00" from="24464014#5" to="37746015#0" type="pkw"/>
    <trip id="39214_360_0" depart="21664.00" from="5069532#0" to="157393119#3" type="pkw"/>
    <trip id="41376_361_0" depart="21664.00" from="-122313834#1" to="154502582" type="pkw"/>
    <trip id="48337_365_0" depart="21664.00" from="24326586" to="34999321#1" type="pkw"/>
    <trip id="39146_360_0" depart="21665.00" from="20302673#1" to="260965265" type="pkw"/>
    <trip id="47888_365_0" depart="21665.00" from="-123082662#1" to="-186623965#5" type="pkw"/>
    <trip id="35752_355_0" depart="21666.00" from="-24499590#1" to="5057241#0" type="pkw"/>
    <trip id="37322_357_0" depart="21666.00" from="31722677#4" to="22598769#0" type="pkw"/>
    <trip id="44054_362_0" depart="21666.00" from="-319929495#1" to="-144935692#2" type="pkw"/>
    <trip id="44368_362_0" depart="21666.00" from="32021867#8" to="186463491#0" type="pkw"/>
    <trip id="45235_362_0" depart="21666.00" from="25150041#1" to="166068636#0" type="pkw"/>
    <trip id="46314_363_0" depart="21666.00" from="150039002#2" to="32021858#0" type="pkw"/>
    <trip id="47678_365_0" depart="21666.00" from="32856811#1" to="154502582" type="pkw"/>
    <trip id="39208_360_0" depart="21667.00" from="5367038" to="-5021132#5" type="pkw"/>
    <trip id="44207_362_0" depart="21667.00" from="154502579#0" to="37746015#0" type="pkw"/>
    <trip id="45216_362_0" depart="21667.00" from="-4020389#5" to="158372035#0" type="pkw"/>
    <trip id="35360_354_0" depart="21668.00" from="-39930301#2" to="166068636#0" type="pkw"/>
    <trip id="38687_359_0" depart="21668.00" from="134871319#0" to="-6186579#1" type="pkw"/>
    <trip id="40299_360_0" depart="21668.00" from="28675559#0" to="-186623965#5" type="pkw"/>
    <trip id="40521_360_0" depart="21668.00" from="154507079#0" to="-27488602#3" type="pkw"/>
    <trip id="42806_361_0" depart="21668.00" from="4145972#0" to="5015523#0" type="pkw"/>
    <trip id="45269_362_0" depart="21668.00" from="13236491#0" to="32390176#3" type="pkw"/>
    <trip id="47413_364_0" depart="21668.00" from="22959551" to="4962343#0" type="pkw"/>
    <trip id="47868_365_0" depart="21668.00" from="23654714#2" to="150034730#0" type="pkw"/>
    <trip id="47568_365_0" depart="21669.00" from="23860555#2" to="-186623965#5" type="pkw"/>
    <trip id="48534_366_0" depart="21669.00" from="-34398802#0" to="33814452#0" type="pkw"/>
    <trip id="36093_355_0" depart="21670.00" from="319937619#0" to="22949992#0" type="pkw"/>
    <trip id="37039_357_0" depart="21670.00" from="22822145#0" to="130752272" type="pkw"/>
    <trip id="39185_360_0" depart="21670.00" from="-338165605" to="5057256#0" type="pkw"/>
    <trip id="40330_360_0" depart="21670.00" from="22917421#2" to="28930544#1" type="pkw"/>
    <trip id="41132_361_0" depart="21670.00" from="8203277#3" to="-340337295#3" type="pkw"/>
    <trip id="42398_361_0" depart="21670.00" from="27404213#0" to="166068636#0" type="pkw"/>
    <trip id="45462_362_0" depart="21670.00" from="155424468#2" to="150222604#2" type="pkw"/>
    <trip id="46799_364_0" depart="21670.00" from="24326585#4" to="32043304" type="pkw"/>
    <trip id="48136_365_0" depart="21670.00" from="51844824#0" to="23387761" type="pkw"/>
    <trip id="35565_354_0" depart="21671.00" from="48587087" to="-107709263" type="pkw"/>
    <trip id="43119_362_0" depart="21671.00" from="193546035#0" to="150222604#2" type="pkw"/>
    <trip id="44203_362_0" depart="21671.00" from="22959974" to="69565657#0" type="pkw"/>
    <trip id="44626_362_0" depart="21671.00" from="-154513850#4" to="151060325#0" type="pkw"/>