<additional>
    <edgeData id="1" type="emissions" freq="10" file="emissions.xml" excludeEmpty="true"/>
</additional>
